$ -------------------------------------------------------------------- $
$ WAVEWATCH III Grid preprocessor input file                           $
$ -------------------------------------------------------------------- $
  'Points wave grid       '
$
   1.10  0.035  29  24  0.5
$
   F T T T F T
$
   3600.  3600. 3600.   30.
$
END OF NAMELISTS
$
    'RECT' T 'NONE'
      3      3
      1.     1.     1.
     -1.    -1.     1.
     -0.1  2.50  10  -1000.  2 1 '(....)' 'UNIT' 'dummy'
$
    9*1
$
   10 3 1 '(....)' 'PART' 'dummy'
$
      0   0   F
      0   0   F
      0   0
      0.  0.  0.  0.   0
$
$ -------------------------------------------------------------------- $
$ End of input file                                                    $
$ -------------------------------------------------------------------- $
